Circuit: * C:\Users\Raphael\Desktop\JAG-C\Hardware\Sim\HV_Sim.asc

Direct Newton iteration failed to find .op point.  (Use ".option noopiter" to skip.)
Starting Gmin stepping
Gmin = 10
Gmin = 1.07374
Gmin = 0.115292
Gmin = 0.0123794
Gmin = 0.00132923
Gmin = 0.000142725
Gmin = 1.5325e-005
Gmin = 1.6455e-006
Gmin = 1.76685e-007
Gmin = 1.89714e-008
Gmin = 2.03704e-009
Gmin = 2.18725e-010
Gmin = 2.34854e-011
Gmin = 2.52173e-012
Gmin = 2.70769e-013
Gmin = 0
Gmin stepping succeeded in finding the operating point.

Ignoring empty pin current: Ix(u2:5)
Ignoring empty pin current: Ix(u2:5)
Heightened Def Con from 0.0825761 to 0.0825761

Date: Tue Apr 12 20:36:42 2022
Total elapsed time: 87.207 seconds.

tnom = 27
temp = 27
method = modified trap
totiter = 11310638
traniter = 11310260
tranpoints = 3097411
accept = 2363321
rejected = 734091
matrix size = 44
fillins = 24
solver = Normal
Matrix Compiler1: 3.11 KB object code size  1.4/0.8/[0.4]
Matrix Compiler2: off  [0.7]/1.2/0.8

